examples/test_perturbation_outputs/pert_min_loss/pglib_opf_case2737sop_k.m
%% MATPOWER Case Format : Version 2
function mpc = pglib_opf_case2737sop_k
mpc.version = '2';

%%-----  Power Flow Data  -----%%
%% system MVA base
mpc.baseMVA = 100.0;
%% bus data
%    bus_i    type    Pd    Qd    Gs    Bs    area    Vm    Va    baseKV    zone    Vmax    Vmin
mpc.bus = [
	1	1	0.0	0.0	0.0	0.0	1	1.03	0.0	220.0	1	1.11	0.95				
	2	1	0.0	0.0	0.0	0.0	1	1.03	0.0	220.0	1	1.11	0.95				
	3	1	0.0	0.0	0.0	0.0	1	1.03	0.0	220.0	1	1.11	0.95				
	4	1	0.0	0.0	0.0	0.0	1	1.03	0.0	220.0	1	1.11	0.95				
	5	1	0.0	0.0	0.0	0.0	1	1.03	0.0	220.0	1	1.11	0.95				
	6	1	0.0	0.0	0.0	0.0	1	1.03	0.0	220.0	1	1.11	0.95				
	7	1	0.0	0.0	0.0	0.0	1	1.03	0.0	220.0	1	1.11	0.95				
	8	1	0.0	0.0	0.0	-50.0	1	1.0	0.0	400.0	1	1.05	0.95				
	9	1	0.0	0.0	0.0	0.0	1	1.0	0.0	400.0	1	1.05	0.95				
	10	1	0.0	0.0	0.0	0.0	1	1.03	0.0	220.0	1	1.11	0.95				
	11	1	0.0	0.0	0.0	0.0	1	1.03	0.0	220.0	1	1.11	0.95				
	12	1	0.0	0.0	0.0	0.0	1	1.03	0.0	220.0	1	1.11	0.95				
	13	1	0.0	0.0	0.0	0.0	1	1.03	0.0	220.0	1	1.11	0.95				
	14	1	0.0	0.0	0.0	-50.0	1	1.0	0.0	400.0	1	1.05	0.95				
	15	1	0.0	0.0	0.0	0.0	1	1.0	0.0	400.0	1	1.05	0.95				
	16	1	0.0	0.0	0.0	0.0	1	1.0	0.0	400.0	1	1.05	0.95				
	17	1	0.0	0.0	0.0	0.0	1	1.03	0.0	220.0	1	1.11	0.95				
	18	1	0.0	0.0	0.0	0.0	1	1.03	0.0	220.0	1	1.11	0.95				
	19	1	0.0	0.0	0.0	0.0	1	1.03	0.0	220.0	1	1.11	0.95				
	20	1	0.0	0.0	0.0	0.0	1	1.03	0.0	220.0	1	1.11	0.95				
	21	1	0.0	0.0	0.0	0.0	1	1.03	0.0	220.0	1	1.11	0.95				
	22	1	0.0	0.0	0.0	0.0	1	1.03	0.0	220.0	1	1.11	0.95				
	23	1	0.0	0.0	0.0	0.0	1	1.03	0.0	220.0	1	1.11	0.95				
	24	1	0.0	0.0	0.0	0.0	1	1.03	0.0	220.0	1	1.11	0.95				
	25	1	0.0	0.0	0.0	-50.0	1	1.0	0.0	400.0	1	1.05	0.95				
	26	2	48.178	65.087	0.0	0.0	1	1.03	0.0	220.0	1	1.11	0.95				
	27	2	28.144999999999996	35.087	0.0	0.0	1	1.03	0.0	220.0	1	1.11	0.95				
	28	3	0.0	0.0	0.0	0.0	1	1.0	0.0	400.0	1	1.05	0.95				
	29	2	44.698	72.0	0.0	0.0	1	1.0	0.0	400.0	1	1.05	0.95				
	30	1	0.0	0.0	0.0	0.0	1	1.03	0.0	220.0	1	1.11	0.95				
	31	1	0.0	0.0	0.0	0.0	1	1.0	0.0	400.0	1	1.05	0.95				
	32	1	0.0	0.0	0.0	0.0	1	1.03	0.0	220.0	1	1.11	0.95				
	33	1	0.0	0.0	0.0	0.0	1	1.03	0.0	220.0	1	1.11	0.95				
	34	1	0.0	0.0	0.0	0.0	1	1.03	0.0	220.0	2	1.11	0.95				
	35	1	0.0	0.0	0.0	0.0	1	1.03	0.0	220.0	2	1.11	0.95				
	36	1	0.0	0.0	0.0	0.0	1	1.03	0.0	220.0	2	1.11	0.95				
	37	1	0.0	0.0	0.0	0.0	1	1.03	0.0	220.0	2	1.11	0.95				
	38	1	0.0	0.0	0.0	0.0	1	1.03	0.0	220.0	2	1.11	0.95				
	39	1	0.0	0.0	0.0	0.0	1	1.03	0.0	220.0	2	1.11	0.95				
	40	1	0.0	0.0	0.0	0.0	1	1.03	0.0	220.0	2	1.11	0.95				
	41	1	0.0	0.0	0.0	0.0	1	1.0	0.0	400.0	2	1.05	0.95				
	42	2	13.0	0.0	0.0	0.0	1	1.03	0.0	220.0	2	1.11	0.95				
	43	2	13.0	0.0	0.0	0.0	1	1.03	0.0	220.0	2	1.11	0.95				
	44	2	25.0	0.0	0.0	0.0	1	1.0	0.0	400.0	2	1.05	0.95				
	45	1	0.0	0.0	0.0	0.0	1	1.0	0.0	400.0	2	1.05	0.95				
	46	1	0.0	0.0	0.0	0.0	1	1.03	0.0	220.0	2	1.11	0.95				
	47	1	0.0	0.0	0.0	0.0	1	1.0	0.0	400.0	2	1.05	0.95				
	48	1	0.0	0.0	0.0	0.0	1	1.0	0.0	400.0	2	1.05	0.95				
	49	1	0.0	0.0	0.0	0.0	1	1.0	0.0	400.0	2	1.05	0.95				
	50	1	0.0	0.0	0.0	0.0	1	1.03	0.0	220.0	2	1.11	0.95				
	51	1	0.0	0.0	0.0	0.0	1	1.03	0.0	220.0	2	1.11	0.95				
	52	1	0.0	0.0	0.0	0.0	1	1.0	0.0	400.0	2	1.05	0.95				
	53	1	0.0	0.0	0.0	0.0	1	1.0	0.0	400.0	2	1.05	0.95				
	54	1	0.0	0.0	0.0	0.0	1	1.03	0.0	220.0	2	1.11	0.95				
	55	2	13.0	0.0	0.0	0.0	1	1.03	0.0	220.0	2	1.11	0.95				
	56	2	13.0	0.0	0.0	0.0	1	1.0	0.0	400.0	2	1.05	0.95				
	57	2	13.0	0.0	0.0	0.0	1	1.0	0.0	400.0	2	1.05	0.95				
	58	2	67.882	25.273	0.0	0.0	1	1.03	0.0	220.0	2	1.11	0.95				
	59	1	0.0	0.0	0.0	0.0	1	1.03	0.0	220.0	2	1.11	0.95				
	60	1	0.0	0.0	0.0	0.0	1	1.03	0.0	220.0	2	1.11	0.95				
	61	1	0.0	0.0	0.0	0.0	1	1.03	0.0	220.0	2	1.11	0.95				
	62	1	0.0	0.0	0.0	0.0	1	1.03	0.0	220.0	2	1.11	0.95				
	63	1	0.0	0.0	0.0	0.0	1	1.0	0.0	400.0	2	1.05	0.95				
	64	1	0.0	0.0	0.0	0.0	1	1.0	0.0	400.0	2	1.05	0.95				
	65	1	0.0	224.802	0.0	0.0	1	0.975	0.0	750.0	2	1.05	0.9				
	66	1	0.0	0.0	0.0	0.0	1	1.03	0.0	220.0	2	1.11	0.95				
	67	1	0.0	0.0	0.0	0.0	1	1.03	0.0	220.0	2	1.11	0.95				
	68	1	0.0	0.0	0.0	0.0	1	1.03	0.0	220.0	2	1.11	0.95				
	69	1	0.0	0.0	0.0	0.0	1	1.03	0.0	220.0	3	1.11	0.95				
	70	1	0.0	0.0	0.0	0.0	1	1.03	0.0	220.0	3	1.11	0.95				
	71	1	0.0	0.0	0.0	0.0	1	1.03	0.0	220.0	3	1.11	0.95				
	72	1	0.0	0.0	0.0	0.0	1	1.03	0.0	220.0	3	1.11	0.95				
	73	1	0.0	0.0	0.0	0.0	1	1.03	0.0	220.0	3	1.11	0.95				
	74	1	0.0	0.0	0.0	0.0	1	1.03	0.0	220.0	3	1.11	0.95				
	75	1	0.0	0.0	0.0	0.0	1	1.03	0.0	220.0	3	1.11	0.95				
	76	1	0.0	0.0	0.0	0.0	1	1.03	0.0	220.0	3	1.11	0.95				
	77	1	0.0	0.0	0.0	0.0	1	1.03	0.0	220.0	3	1.11	0.95				
	78	2	27.0	70.0	0.0	0.0	1	1.03	0.0	220.0	3	1.11	0.95				
	79	2	9.0	21.0	0.0	0.0	1	1.03	0.0	220.0	3	1.11	0.95				
	80	1	4.602	0.91	0.0	0.0	1	1.03	0.0	220.0	3	1.11	0.95				
	81	1	0.0	0.0	0.0	0.0	1	1.03	0.0	220.0	3	1.11	0.95				
	82	2	18.0	56.99999999999999	0.0	0.0	1	1.0	0.0	400.0	3	1.05	0.95				
	83	1	0.0	0.0	0.0	0.0	1	1.03	0.0	220.0	3	1.11	0.95				
	84	1	0.0	0.0	0.0	0.0	1	1.03	0.0	220.0	3	1.11	0.95				
	85	1	0.0	0.0	0.0	0.0	1	1.03	0.0	220.0	3	1.11	0.95				
	86	1	32.969	-8.4	0.0	0.0	1	1.03	0.0	220.0	3	1.11	0.95				
	87	1	0.0	0.0	0.0	0.0	1	1.03	0.0	220.0	3	1.11	0.95				
	88	1	0.0	0.0	0.0	0.0	1	1.03	0.0	220.0	3	1.11	0.95				
	89	1	0.0	0.0	0.0	0.0	1	1.03	0.0	220.0	3	1.11	0.95				
	90	1	0.0	0.0	0.0	0.0	1	1.03	0.0	220.0	3	1.11	0.95				
	91	1	0.0	0.0	0.0	0.0	1	1.03	0.0	220.0	3	1.11	0.95				
	92	1	0.0	0.0	0.0	0.0	1	1.0	0.0	400.0	3	1.05	0.95				
	93	1	0.0	0.0	0.0	0.0	1	1.0	0.0	400.0	3	1.05	0.95				
	94	1	0.0	0.0	0.0	0.0	1	1.03	0.0	220.0	3	1.11	0.95				
	95	1	0.0	0.0	0.0	0.0	1	1.03	0.0	220.0	3	1.11	0.95				
	96	1	0.0	0.0	0.0	0.0	1	1.03	0.0	220.0	3	1.11	0.95				
	97	1	0.0	0.0	0.0	0.0	1	1.03	0.0	220.0	3	1.11	0.95				
	98	2	9.938	2.19	0.0	0.0	1	1.03	0.0	220.0	3	1.11	0.95				
	99	1	16.652	3.293	0.0	0.0	1	1.03	0.0	220.0	3	1.11	0.95				
	100	1	0.0	0.0	0.0	0.0	1	1.03	0.0	220.0	3	1.11	0.95				
	101	1	0.0	0.0	0.0	0.0	1	1.03	0.0	220.0	3	1.11	0.95				
	102	1	0.0	0.0	0.0	0.0	1	1.03	0.0	220.0	3	1.11	0.95				
	103	1	0.0	0.0	0.0	0.0	1	1.03	0.0	220.0	3	1.11	0.95				
	104	2	14.000000000000002	40.0	0.0	0.0	1	1.03	0.0	220.0	3	1.11	0.95				
	105	1	0.0	0.0	0.0	0.0	1	1.03	0.0	220.0	3	1.11	0.95				
	106	2	7.000000000000001	18.0	0.0	0.0	1	1.03	0.0	220.0	3	1.11	0.95				
	107	1	0.0	0.0	0.0	0.0	1	1.03	0.0	220.0	3	1.11	0.95				
	108	1	27.63	5.872	0.0	0.0	1	1.03	0.0	220.0	3	1.11	0.95				
	109	1	17.522	3.337	0.0	0.0	1	1.03	0.0	220.0	3	1.11	0.95				
	110	1	0.0	0.0	0.0	0.0	1	1.03	0.0	220.0	3	1.11	0.95				
	111	1	0.0	0.0	0.0	0.0	1	1.03	0.0	220.0	3	1.11	0.95				
	112	1	0.0	0.0	0.0	0.0	1	1.03	0.0	220.0	3	1.11	0.95				
	113	1	0.0	0.0	0.0	0.0	1	1.03	0.0	220.0	3	1.11	0.95				
	114	1	0.0	0.0	0.0	0.0	1	1.03	0.0	220.0	3	1.11	0.95				
	115	1	0.0	0.0	0.0	0.0	1	1.0	0.0	400.0	3	1.05	0.95				
	116	1	0.0	0.0	0.0	0.0	1	1.03	0.0	220.0	3	1.11	0.95				
	117	2	8.0	15.0	0.0	0.0	1	1.03	0.0	220.0	3	1.11	0.95				
	118	1	0.0	0.0	0.0	0.0	1	1.03	0.0	220.0	3	1.11	0.95				
	119	1	0.0	0.0	0.0	0.0	1	1.03	0.0	220.0	3	1.11	0.95				
	120	1	0.0	0.0	0.0	0.0	1	1.0	0.0	400.0	3	1.05	0.95				
	121	1	0.0	0.0	0.0	0.0	1	1.0	0.0	400.0	3	1.05	0.95				
	122	1	0.0	0.0	0.0	0.0	1	1.0	0.0	400.0	3	1.05	0.95				
	123	1	0.0	0.0	0.0	0.0	1	1.0	0.0	400.0	3	1.05	0.95				
	124	1	0.0	0.0	0.0	0.0	1	1.03	0.0	220.0	3	1.11	0.95				
	125	1	2.929	0.8670000000000001	0.0	0.0	1	1.03	0.0	220.0	3	1.11	0.95				
	126	2	19.898	27.706999999999997	0.0	0.0	1	1.03	0.0	220.0	3	1.11	0.95				
	127	2	12.2	25.8	0.0	0.0	1	1.0	0.0	400.0	3	1.05	0.95				
	128	1	0.0	0.0	0.0	0.0	1	1.0	0.0	400.0	3	1.05	0.95				
	129	1	0.0	0.0	0.0	0.0	1	1.03	0.0	220.0	3	1.11	0.95				
	130	1	0.0	0.0	0.0	0.0	1	1.03	0.0	220.0	3	1.11	0.95				
	131	1	0.0	0.0	0.0	0.0	1	1.03	0.0	220.0	3	1.11	0.95				
	132	2	137.0	9.0	0.0	0.0	1	1.03	0.0	220.0	3	1.11	0.95				
	133	2	137.0	6.0	0.0	0.0	1	1.03	0.0	220.0	3	1.11	0.95				
	134	1	0.515	1.973	0.0	0.0	1	1.03	0.0	220.0	4	1.11	0.95				
	135	2	15.242	14.276999999999997	0.0	0.0	1	1.03	0.0	220.0	4	1.11	0.95				
	136	1	0.0	0.0	0.0	0.0	1	1.03	0.0	220.0	4	1.11	0.95				
	137	1	0.0	0.0	0.0	0.0	1	1.03	0.0	220.0	4	1.11	0.95				
	138	1	0.0	0.0	0.0	0.0	1	1.0	0.0	400.0	4	1.05	0.95				
	139	1	0.0	0.0	0.0	0.0	1	1.0	0.0	400.0	4	1.05	0.95				
	140	1	0.0	0.0	0.0	0.0	1	1.03	0.0	220.0	4	1.11	0.95				
	141	1	0.0	0.0	0.0	0.0	1	1.03	0.0	220.0	4	1.11	0.95				
	142	1	0.0	0.0	0.0	0.0	1	1.03	0.0	220.0	4	1.11	0.95				
	143	1	0.0	0.0	0.0	0.0	1	1.03	0.0	220.0	4	1.11	0.95				
	144	1	0.0	0.0	0.0	0.0	1	1.03	0.0	220.0	4	1.11	0.95				
	145	1	0.0	0.0	0.0	0.0	1	1.03	0.0	220.0	4	1.11	0.95				
	146	1	7.636	13.257	0.0	0.0	1	1.03	0.0	220.0	4	1.11	0.95				
	147	1	0.0	0.0	0.0	0.0	1	1.03	0.0	220.0	4	1.11	0.95				
	148	2	10.87	14.866999999999999	0.0	0.0	1	1.03	0.0	220.0	4	1.11	0.95				
	149	1	0.0	0.0	0.0	0.0	1	1.03	0.0	220.0	4	1.11	0.95				
	150	2	10.989	15.0	0.0	0.0	1	1.0	0.0	400.0	4	1.05	0.95				
	151	2	20.672	21.479	0.0	0.0	1	1.0	0.0	400.0	4	1.05	0.95				
	152	1	0.0	0.0	0.0	0.0	1	1.03	0.0	220.0	4	1.11	0.95				
	153	1	0.0	0.0	0.0	0.0	1	1.03	0.0	220.0	4	1.11	0.95				
	154	1	0.0	0.0	0.0	0.0	1	1.03	0.0	220.0	4	1.11	0.95				
	155	2	0.0	0.0	0.0	0.0	1	1.03	0.0	220.0	4	1.11	0.95				
	156	2	13.87	33.0	0.0	0.0	1	1.03	0.0	220.0	4	1.11	0.95				
	157	1	0.0	0.0	0.0	0.0	1	1.0	0.0	400.0	4	1.05	0.95				
	158	2	9.989	25.0	0.0	0.0	1	1.0	0.0	400.0	4	1.05	0.95				
	159	1	0.0	0.0	0.0	0.0	1	1.03	0.0	220.0	4	1.11	0.95				
	160	1	0.0	0.0	0.0	0.0	1	1.03	0.0	220.0	4	1.11	0.95				
	161	1	0.0	0.0	0.0	0.0	1	1.0	0.0	400.0	4	1.05	0.95				
	162	1	0.0	0.0	0.0	0.0	1	1.0	0.0	400.0	4	1.05	0.95				
	163	1	0.0	0.0	0.0	0.0	1	1.0	0.0	400.0	4	1.05	0.95				
	164	2	11.664	11.0	0.0	0.0	1	1.03	0.0	220.0	4	1.11	0.95				
	165	2	11.564	10.667	0.0	0.0	1	1.03	0.0	220.0	4	1.11	0.95				
	166	1	0.0	0.0	0.0	0.0	1	1.03	0.0	220.0	4	1.11	0.95				
	167	1	0.0	0.0	0.0	0.0	1	1.03	0.0	220.0	4	1.11	0.95				
	168	1	0.0	0.0	0.0	0.0	1	1.03	0.0	220.0	4	1.11	0.95				
	169	1	0.0	0.0	0.0	0.0	1	1.03	0.0	220.0	4	1.11	0.95				
	170	1	0.0	0.0	0.0	0.0	1	1.03	0.0	220.0	4	1.11	0.95				
	171	1	0.0	0.0	0.0	0.0	1	1.0	0.0	400.0	4	1.05	0.95				
	172	1	0.0	0.0	0.0	0.0	1	1.0	0.0	400.0	4	1.05	0.95				
	173	1	0.0	0.0	0.0	0.0	1	1.03	0.0	220.0	4	1.11	0.95				
	174	1	0.0	0.0	0.0	0.0	1	1.03	0.0	220.0	4	1.11	0.95				
	175	1	0.0	0.0	0.0	0.0	1	1.03	0.0	220.0	4	1.11	0.95				
	176	1	0.0	0.0	0.0	0.0	1	1.03	0.0	220.0	4	1.11	0.95				
	177	1	0.0	0.0	0.0	0.0	1	1.03	0.0	220.0	4	1.11	0.95				
	178	1	0.0	0.0	0.0	0.0	1	1.03	0.0	220.0	4	1.11	0.95				
	179	1	0.0	0.0	0.0	0.0	1	1.03	0.0	220.0	4	1.11	0.95				
	180	2	3.1300000000000003	1.5	0.0	0.0	1	1.03	0.0	220.0	4	1.11	0.95				
	181	1	0.0	0.0	0.0	0.0	1	1.03	0.0	220.0	4	1.11	0.95				
	182	1	0.0	0.0	0.0	0.0	1	1.03	0.0	220.0	5	1.11	0.95				
	183	1	0.0	0.0	0.0	0.0	1	1.03	0.0	220.0	5	1.11	0.95				
	184	1	0.0	0.0	0.0	0.0	1	1.0	0.0	400.0	5	1.05	0.95				
	185	1	0.0	0.0	0.0	0.0	1	1.0	0.0	400.0	5	1.05	0.95				
	186	1	0.0	0.0	0.0	0.0	1	1.0	0.0	400.0	5	1.05	0.95				
	187	1	0.0	0.0	0.0	0.0	1	1.0	0.0	400.0	5	1.05	0.95				
	188	1	0.0	0.0	0.0	0.0	1	1.03	0.0	220.0	5	1.11	0.95				
	189	1	0.0	0.0	0.0	0.0	1	1.03	0.0	220.0	5	1.11	0.95				
	190	1	0.0	0.0	0.0	0.0	1	1.03	0.0	220.0	5	1.11	0.95				
	191	1	0.0	0.0	0.0	0.0	1	1.03	0.0	220.0	5	1.11	0.95				
	192	1	0.0	0.0	0.0	0.0	1	1.0	0.0	400.0	5	1.05	0.95				
	193	1	0.0	0.0	0.0	0.0	1	1.03	0.0	220.0	5	1.11	0.95				
	194	1	0.0	0.0	0.0	0.0	1	1.03	0.0	220.0	5	1.11	0.95				
	195	1	0.0	0.0	0.0	0.0	1	1.0	0.0	400.0	5	1.05	0.95				
	196	1	0.0	0.0	0.0	0.0	1	1.0	0.0	400.0	5	1.05	0.95				
	197	1	0.0	0.0	0.0	0.0	1	1.03	0.0	220.0	5	1.11	0.95				
	198	1	0.0	0.0	0.0	0.0	1	1.03	0.0	220.0	5	1.11	0.95				
	199	1	0.0	0.0	0.0	-117.0	1	1.0	0.0	400.0	5	1.05	0.95				
	200	1	0.0	0.0	0.0	0.0	1	1.0	0.0	400.0	5	1.05	0.95				
...
];

%% generator data
%    bus    Pg    Qg    Qmax    Qmin    Vg    mBase    status    Pmax    Pmin    Pc1    Pc2    Qc1min    Qc1max    Qc2min    Qc2max    ramp_agc    ramp_10    ramp_30    ramp_q    apf
mpc.gen = [
	17	0.0	0.0	120.0	-22.0	1.03	241.9	0	210.0	140.0															
	17	0.0	0.0	120.0	-22.0	1.03	233.2	0	200.0	140.0															
	26	330.0	85.5	190.0	-19.0	1.03	415.9	1	370.0	290.0															
	27	325.0	85.5	190.0	-19.0	1.03	407.1	1	360.0	290.0															
	27	0.0	0.0	190.0	-19.0	1.03	407.1	0	360.0	290.0															
	27	0.0	0.0	190.0	-19.0	1.03	415.9	0	370.0	290.0															
	26	330.0	85.5	190.0	-19.0	1.03	415.9	1	370.0	290.0															
	28	330.0	85.5	190.0	-19.0	1.0	415.9	1	370.0	290.0															
	28	0.0	0.0	190.0	-19.0	1.0	415.9	0	370.0	290.0															
	28	0.0	0.0	190.0	-19.0	1.0	415.9	0	370.0	290.0															
	29	0.0	0.0	190.0	-19.0	1.0	415.9	0	370.0	290.0															
	29	330.0	85.5	190.0	-19.0	1.0	415.9	1	370.0	290.0															
	29	330.0	85.5	190.0	-19.0	1.0	415.9	1	370.0	290.0															
	42	172.5	50.5	135.0	-34.0	1.03	253.9	1	215.0	130.0															
	42	0.0	0.0	130.0	-34.0	1.03	242.7	0	204.99999999999997	135.0															
	42	0.0	0.0	145.0	-34.0	1.03	267.7	0	225.0	110.00000000000001															
	43	0.0	0.0	145.0	-34.0	1.03	267.7	0	225.0	120.0															
	43	177.5	55.50000000000001	145.0	-34.0	1.03	267.7	1	225.0	130.0															
	43	0.0	0.0	130.0	-34.0	1.03	242.7	0	204.99999999999997	135.0															
	44	395.0	158.0	363.0	-47.0	1.0	646.5	1	535.0	254.99999999999997															
	44	0.0	0.0	348.0	-100.0	1.0	659.3	0	560.0	250.0															
	54	0.0	0.0	104.0	-1.0	1.03	247.9	0	225.0	129.0															
	55	177.0	56.99999999999999	130.0	-16.0	1.03	259.9	1	225.0	129.0															
	54	0.0	0.0	130.0	-16.0	1.03	259.9	0	225.0	129.0															
	56	177.0	56.99999999999999	130.0	-16.0	1.0	259.9	1	225.0	129.0															
	57	177.0	56.99999999999999	130.0	-16.0	1.0	259.9	1	225.0	129.0															
	57	0.0	0.0	104.0	-1.0	1.0	247.9	0	225.0	129.0															
	57	0.0	0.0	130.0	-16.0	1.0	259.9	0	225.0	129.0															
	58	39.7	15.0	30.0	0.0	1.03	57.7	1	39.7	39.7															
	78	182.5	54.0	123.0	-15.0	1.03	256.4	1	225.0	140.0															
	78	182.5	54.0	123.0	-15.0	1.03	256.4	1	225.0	140.0															
	79	0.0	0.0	123.0	-15.0	1.03	252.0	0	220.00000000000003	140.0															
	79	0.0	0.0	123.0	-15.0	1.03	256.4	0	225.0	140.0															
	79	182.5	54.0	123.0	-15.0	1.03	256.4	1	225.0	140.0															
	82	300.0	100.49999999999999	231.99999999999997	-31.0	1.0	445.2	1	380.0	220.00000000000003															
	82	0.0	0.0	227.99999999999997	-30.0	1.0	434.6	0	370.0	220.00000000000003															
	98	8.998	0.5	1.0	0.0	1.03	12.0	1	8.998	8.998															
	98	5.998	0.5	1.0	0.0	1.03	6.1	1	5.998	5.998															
	104	179.5	54.0	123.0	-15.0	1.03	256.4	1	225.0	134.0															
	105	0.0	0.0	123.0	-15.0	1.03	256.4	0	225.0	134.0															
	106	99.5	39.0	80.0	-2.0	1.03	144.2	1	120.0	79.0															
	107	0.0	0.0	80.0	-2.0	1.03	144.2	0	120.0	79.0															
	116	0.0	0.0	90.0	-20.0	1.03	150.0	0	120.0	90.0															
	117	95.0	40.0	82.0	-2.0	1.03	145.3	1	120.0	70.0															
	118	0.0	0.0	40.0	0.0	1.03	117.0	0	110.00000000000001	80.0															
	125	0.0	0.0	135.0	-35.0	1.03	253.9	0	215.0	160.0															
	126	0.0	0.0	140.0	-35.0	1.03	265.0	0	225.0	140.0															
	126	187.5	50.0	135.0	-35.0	1.03	253.9	1	215.0	160.0															
	127	182.5	50.0	140.0	-40.0	1.0	265.0	1	225.0	140.0															
	127	0.0	0.0	137.0	-40.0	1.0	259.2	0	220.00000000000003	160.0															
	132	0.0	1.0	40.0	-38.0	1.03	131.2	1	0.0	0.0															
	132	0.0	0.0	40.0	-38.0	1.03	131.2	0	0.0	0.0															
	133	0.0	0.0	40.0	-38.0	1.03	131.2	0	0.0	0.0															
	133	0.0	1.0	40.0	-38.0	1.03	131.2	1	0.0	0.0															
	134	0.0	0.0	90.0	0.0	1.03	150.0	0	120.0	100.0															
	134	0.0	0.0	90.0	0.0	1.03	150.0	0	120.0	100.0															
	135	110.00000000000001	45.0	90.0	0.0	1.03	150.0	1	120.0	100.0															
	146	0.0	0.0	12.0	0.0	1.03	51.4	0	50.0	30.0															
	146	0.0	0.0	12.0	0.0	1.03	51.4	0	50.0	30.0															
	147	0.0	0.0	90.0	0.0	1.03	150.0	0	120.0	90.0															
	148	0.0	0.0	149.0	-48.0	1.03	267.4	0	222.00000000000003	90.0															
	148	0.0	0.0	149.0	-48.0	1.03	253.4	0	204.99999999999997	135.0															
	148	0.0	0.0	149.0	-48.0	1.03	253.4	0	204.99999999999997	135.0															
	148	156.0	50.5	149.0	-48.0	1.03	267.4	1	222.00000000000003	90.0															
	150	156.0	50.0	123.0	-23.0	1.0	253.8	1	222.00000000000003	90.0															
	151	156.0	50.5	149.0	-48.0	1.0	267.4	1	222.00000000000003	90.0															
	151	0.0	0.0	123.0	-23.0	1.0	253.8	0	222.00000000000003	90.0															
	155	164.5	48.0	149.0	-53.0	1.03	278.3	1	235.0	94.0															
	155	0.0	0.0	149.0	-53.0	1.03	278.3	0	235.0	94.0															
	155	0.0	0.0	120.0	0.0	1.03	287.3	0	261.0	104.0															
	155	0.0	0.0	132.0	-40.0	1.03	292.5	0	261.0	104.0															
	156	0.0	0.0	120.0	0.0	1.03	287.3	0	261.0	104.0															
	156	167.5	47.5	117.0	-22.0	1.03	236.0	1	204.99999999999997	130.0															
	156	163.0	44.5	109.00000000000001	-20.0	1.03	233.1	1	206.0	120.0															
	156	0.0	0.0	109.00000000000001	-20.0	1.03	233.1	0	206.0	120.0															
	158	163.0	44.5	109.00000000000001	-20.0	1.0	233.1	1	206.0	120.0															
	164	0.0	0.0	104.0	-23.0	1.03	225.4	0	200.0	150.0															
	164	175.0	40.5	104.0	-23.0	1.03	225.4	1	200.0	150.0															
	165	175.0	40.5	104.0	-23.0	1.03	225.4	1	200.0	150.0															
	165	0.0	0.0	104.0	-23.0	1.03	225.4	0	200.0	150.0															
	180	120.0	55.00000000000001	110.00000000000001	0.0	1.03	219.5	1	120.0	120.0															
	205	0.0	24.9995	80.0	-30.001	1.0	196.1	1	0.0	0.0															
	205	0.0	24.9995	80.0	-30.001	1.0	196.1	1	0.0	0.0															
	205	0.0	0.0	110.00000000000001	-60.0	1.0	210.1	0	0.0	0.0															
	206	0.0	0.0	110.00000000000001	-60.0	1.0	210.1	0	0.0	0.0															
	215	23.0	10.0	20.0	0.0	1.035	58.5	1	23.0	23.0															
	215	0.0	0.0	20.0	0.0	1.035	53.9	0	0.0	0.0															
	215	0.0	0.0	20.0	0.0	1.035	53.9	0	0.0	0.0															
	215	7.000000000000001	10.0	20.0	0.0	1.035	30.5	1	7.000000000000001	7.000000000000001															
	221	1.55	0.5	1.0	0.0	1.035	2.3	1	1.55	1.55															
	222	1.55	0.5	1.0	0.0	1.035	2.3	1	1.55	1.55															
	240	6.3	3.0	6.0	0.0	1.035	9.8	1	6.3	6.3															
	247	330.0	85.5	190.0	-19.0	1.035	415.9	1	370.0	290.0															
	310	0.0	0.0	7.000000000000001	0.0	1.035	27.9	0	0.0	0.0															
	310	0.0	0.0	7.000000000000001	0.0	1.035	27.9	0	0.0	0.0															
	310	11.0	5.5	7.000000000000001	4.0	1.035	30.8	1	11.0	11.0															
	310	0.0	0.0	7.000000000000001	0.0	1.035	27.9	0	0.0	0.0															
	310	0.0	0.0	6.0	0.0	1.035	27.7	0	0.0	0.0															
	310	0.0	0.0	7.000000000000001	0.0	1.035	27.9	0	0.0	0.0															
	310	0.0	0.0	7.000000000000001	0.0	1.035	27.9	0	0.0	0.0															
	311	0.0	0.0	15.0	0.0	1.035	36.7	0	0.0	0.0															
	311	0.0	0.0	15.0	0.0	1.035	57.0	0	0.0	0.0															
	312	16.0	7.5	15.0	0.0	1.035	36.7	1	16.0	16.0															
	312	0.0	0.0	15.0	0.0	1.035	57.0	0	0.0	0.0															
	314	25.0	10.0	20.0	0.0	1.035	53.9	1	25.0	25.0															
	314	0.0	0.0	20.0	0.0	1.035	53.9	0	0.0	0.0															
	315	0.0	0.0	40.0	0.0	1.035	107.7	0	0.0	0.0															
	323	2.5	1.5	3.0	0.0	1.035	4.1	1	2.5	2.5															
	366	40.0	6.0	12.0	0.0	1.035	47.8	1	40.0	40.0															
	367	40.0	6.0	12.0	0.0	1.035	47.8	1	40.0	40.0															
	368	40.0	6.0	12.0	0.0	1.035	47.8	1	40.0	40.0															
	369	40.0	6.0	12.0	0.0	1.035	47.8	1	40.0	40.0															
	386	175.0	45.5	138.0	-47.0	1.035	251.3	1	210.0	140.0															
	386	0.0	0.0	10.0	0.0	1.035	26.9	0	25.0	12.0															
	387	13.5	5.0	10.0	0.0	1.035	19.7	1	17.0	10.0															
	444	1.5	1.0	2.0	0.0	1.035	3.6	1	1.5	1.5															
	453	5.21	1.0	2.0	0.0	1.035	6.1	1	5.21	5.21															
	453	0.0	0.0	2.0	0.0	1.035	6.1	0	0.0	0.0															
	486	1.4	0.35	0.7	0.0	1.035	1.7	1	1.4	1.4															
	537	25.0	7.000000000000001	14.000000000000002	0.0	1.035	53.9	1	25.0	25.0															
	537	0.0	0.0	14.000000000000002	0.0	1.035	34.9	0	0.0	0.0															
	537	0.0	0.0	14.000000000000002	0.0	1.035	34.0	0	0.0	0.0															
	537	0.0	0.0	14.000000000000002	0.0	1.035	105.9	0	0.0	0.0															
	537	0.0	0.0	14.000000000000002	0.0	1.035	105.9	0	0.0	0.0															
	538	20.0	8.75	17.5	0.0	1.035	36.5	1	20.0	20.0															
	538	20.0	8.75	17.5	0.0	1.035	35.6	1	20.0	20.0															
	538	0.0	0.0	17.5	0.0	1.035	126.2	0	0.0	0.0															
	538	0.0	0.0	17.5	0.0	1.035	106.4	0	0.0	0.0															
	552	1.4	0.35	0.7	0.0	1.035	1.7	1	1.4	1.4															
	560	22.5	5.0	10.0	0.0	1.035	35.4	1	22.5	22.5															
	560	0.0	0.0	5.0	0.0	1.035	28.4	0	0.0	0.0															
	560	0.0	0.0	5.0	0.0	1.035	26.5	0	0.0	0.0															
	560	0.0	0.0	5.0	0.0	1.035	30.4	0	0.0	0.0															
	560	0.0	0.0	5.0	0.0	1.035	34.4	0	0.0	0.0															
	561	22.5	5.0	10.0	0.0	1.035	35.4	1	22.5	22.5															
	561	0.0	0.0	5.0	0.0	1.035	34.4	0	0.0	0.0															
	561	0.0	0.0	5.0	0.0	1.035	26.5	0	0.0	0.0															
	561	0.0	0.0	5.0	0.0	1.035	34.4	0	0.0	0.0															
	574	1.0	2.0	4.0	0.0	1.035	8.9	1	1.0	1.0															
	627	76.0	15.0	30.0	0.0	1.035	97.7	1	76.0	76.0															
	627	30.0	15.0	30.0	0.0	1.035	46.8	1	30.0	30.0															
	665	177.5	55.50000000000001	145.0	-34.0	1.035	267.7	1	225.0	130.0															
	666	0.0	0.0	145.0	-34.0	1.035	267.7	0	225.0	130.0															
	686	140.0	15.0	30.0	0.0	1.035	182.5	1	140.0	140.0															
	686	47.0	15.0	30.0	0.0	1.035	77.5	1	47.0	47.0															
	692	1.9799999999999998	0.5	1.0	0.0	1.035	2.7	1	1.9799999999999998	1.9799999999999998															
	717	1.32	0.65	1.3	0.0	1.035	10.1	1	1.32	1.32															
	741	177.0	56.99999999999999	130.0	-16.0	1.035	259.9	1	225.0	129.0															
	764	82.0	15.0	30.0	0.0	1.035	105.4	1	82.0	82.0															
	793	1.0	0.25	0.5	0.0	1.035	8.3	1	1.0	1.0															
	797	0.0	0.0	23.0	0.0	1.035	71.9	0	0.0	0.0															
	797	0.0	0.0	23.0	0.0	1.035	71.9	0	0.0	0.0															
	797	0.0	0.0	11.0	0.0	1.035	32.9	0	0.0	0.0															
	797	0.0	0.0	10.0	0.0	1.035	32.6	0	0.0	0.0															
	808	0.0	0.0	10.0	0.0	1.035	125.4	0	125.0	84.0															
	809	108.5	5.0	10.0	0.0	1.035	125.4	1	125.0	92.0															
	846	14.996	4.05	8.1	0.0	1.035	33.0	1	14.996	14.996															
	846	14.996	4.05	8.1	0.0	1.035	33.0	1	14.996	14.996															
	846	0.0	0.0	0.0	0.0	1.035	19.0	0	0.0	0.0															
	846	0.0	0.0	0.0	0.0	1.035	19.0	0	0.0	0.0															
	878	34.99	20.6	41.2	0.0	1.035	87.7	1	34.99	34.99															
	901	0.0	0.0	45.0	-10.0	1.035	65.8	0	0.0	0.0															
	901	44.988	17.5	45.0	-10.0	1.035	71.1	1	44.988	44.988															
	901	0.0	0.0	45.0	-10.0	1.035	71.1	0	0.0	0.0															
	976	0.0	0.0	110.00000000000001	-40.0	1.035	162.2	0	0.0	0.0															
	977	99.973	35.0	110.00000000000001	-40.0	1.035	162.2	1	99.973	99.973															
	981	0.0	0.0	0.0	0.0	1.035	16.8	0	0.0	0.0															
	1002	303.0	104.0	240.0	-32.0	1.035	454.5	1	386.0	220.00000000000003															
	1003	0.0	0.0	227.0	-30.0	1.035	434.1	0	370.0	220.00000000000003															
	1007	5.998	0.7235	1.447	0.0	1.035	7.1	1	5.998	5.998															
	1006	3.9989999999999997	0.2235	0.447	0.0	1.035	4.0	1	3.9989999999999997	3.9989999999999997															
	1007	3.9989999999999997	0.2235	0.447	0.0	1.035	5.0	1	3.9989999999999997	3.9989999999999997															
	1007	0.0	0.0	0.0	0.0	1.035	6.0	0	0.0	0.0															
	1008	0.0	0.0	110.00000000000001	-40.0	1.035	174.1	0	0.0	0.0															
	1014	14.996	2.4	4.8	0.0	1.035	20.6	1	14.996	14.996															
	1014	0.0	0.0	0.0	0.0	1.035	12.8	0	0.0	0.0															
	1014	0.0	0.0	0.0	0.0	1.035	12.5	0	0.0	0.0															
	1016	0.0	0.0	0.0	0.0	1.035	20.0	0	0.0	0.0															
	1016	0.0	0.0	0.0	0.0	1.035	19.0	0	0.0	0.0															
	1025	11.997	13.5	18.0	9.0	1.035	30.0	1	11.997	11.997															
	1026	0.0	0.0	18.0	9.0	1.035	30.0	0	0.0	0.0															
	1027	0.0	0.0	14.000000000000002	10.5	1.035	32.2	0	0.0	0.0															
	1114	0.0	0.0	37.5	16.8	1.035	62.5	0	0.0	0.0															
	1115	0.0	0.0	37.5	7.5	1.035	62.5	0	0.0	0.0															
	1114	39.989	22.5	37.5	7.5	1.035	62.5	1	39.989	39.989															
	1116	0.0	0.0	37.5	16.8	1.035	62.5	0	0.0	0.0															
	1153	16.995	2.6255	5.251	0.0	1.035	30.5	1	16.995	16.995															
	1153	0.0	0.0	0.0	0.0	1.035	6.0	0	0.0	0.0															
	1154	16.995	2.6255	5.251	0.0	1.035	30.5	1	16.995	16.995															
	1154	0.0	0.0	0.0	0.0	1.035	25.0	0	0.0	0.0															
	1155	15.995999999999999	2.625	5.25	0.0	1.035	30.5	1	15.995999999999999	15.995999999999999															
	1155	0.0	0.0	0.0	0.0	1.035	6.0	0	0.0	0.0															
	1180	59.984	26.25	52.5	0.0	1.035	87.5	1	59.984	59.984															
	1181	0.0	0.0	52.5	0.0	1.035	87.5	0	0.0	0.0															
	1181	0.0	0.0	42.0	16.8	1.035	65.3	0	0.0	0.0															
	1189	49.986	0.0	0.0	0.0	1.035	50.0	1	49.986	49.986															
	1247	9.997	1.0	2.0	0.0	1.035	16.7	1	9.997	9.997															
	1247	0.0	0.0	0.0	0.0	1.035	24.0	0	0.0	0.0															
	1248	0.0	0.0	0.0	0.0	1.035	14.6	0	0.0	0.0															
	1248	0.0	0.0	0.0	0.0	1.035	14.6	0	0.0	0.0															
...
];

%% branch data
%    f_bus    t_bus    r    x    b    rateA    rateB    rateC    ratio    angle    status    angmin    angmax
mpc.branch = [
	7	8	0.00064	0.0305	0.0	400.0	400.0	400.0	1.0435	0.6	1	-29.999999999999996	29.999999999999996								
	26	28	0.00036	0.02519	0.0	500.0	500.0	500.0	1.0911	0.0	1	-29.999999999999996	29.999999999999996								
	27	29	0.00036	0.02519	0.0	500.0	500.0	500.0	1.0759	0.0	1	-29.999999999999996	29.999999999999996								
	39	41	0.00034	0.02097	0.0	500.0	500.0	500.0	1.0793	0.0	1	-29.999999999999996	29.999999999999996								
	42	45	0.00034	0.02097	0.0	500.0	500.0	500.0	1.0296	0.0	1	-29.999999999999996	29.999999999999996								
	54	56	0.00081	0.03	0.0	400.0	400.0	400.0	1.0501	0.0	1	-29.999999999999996	29.999999999999996								
	63	65	0.00015	0.01071	0.0	1250.0	1250.0	1250.0	0.9673	0.0	1	-29.999999999999996	29.999999999999996								
	64	65	0.00015	0.01071	0.0	1250.0	1250.0	1250.0	0.9665	0.0	0	-29.999999999999996	29.999999999999996								
	90	92	0.00075	0.02444	-0.00832	330.0	330.0	330.0	1.0474	0.0	1	-29.999999999999996	29.999999999999996								
	91	93	0.00075	0.02469	-0.008	330.0	330.0	330.0	1.0445	0.0	1	-29.999999999999996	29.999999999999996								
	125	128	0.0005	0.02875	-0.016	400.0	400.0	400.0	1.1172	0.0	1	-29.999999999999996	29.999999999999996								
	149	150	0.00064	0.0305	0.0	400.0	400.0	400.0	1.077	0.0	1	-29.999999999999996	29.999999999999996								
	155	157	0.000232	0.023	0.0	500.0	500.0	500.0	1.0887	0.0	1	-29.999999999999996	29.999999999999996								
	156	158	0.000232	0.023	0.0	500.0	500.0	500.0	1.0887	0.0	1	-29.999999999999996	29.999999999999996								
	169	171	0.00035	0.02375	0.0	500.0	500.0	500.0	1.0894	0.0	1	-29.999999999999996	29.999999999999996								
	183	184	0.00059	0.030919	0.0	400.0	400.0	400.0	1.0584	0.0	1	-29.999999999999996	29.999999999999996								
	190	192	0.0004	0.03	0.0	500.0	500.0	500.0	1.0855	-3.6	1	-29.999999999999996	29.999999999999996								
	2727	157	0.00031	0.00338	0.0992	1386.0	1386.0	1386.0	0	0	1	-29.999999999999996	29.999999999999996								
	2727	158	0.00031	0.00338	0.0992	1386.0	1386.0	1386.0	0	0	1	-29.999999999999996	29.999999999999996								
	2728	68	0.014341	0.083531	0.126034	385.0	385.0	385.0	0	0	1	-29.999999999999996	29.999999999999996								
	2726	76	0.01219	0.070659	0.117418	412.0	412.0	412.0	0	0	1	-29.999999999999996	29.999999999999996								
	2726	105	0.011781	0.07087	0.116838	412.0	412.0	412.0	0	0	1	-29.999999999999996	29.999999999999996								
	127	2725	0.001525	0.016837	0.50576	1386.0	1386.0	1386.0	0	0	1	-29.999999999999996	29.999999999999996								
	2729	148	0.001651	0.015909	0.046948	316.0	316.0	316.0	0	0	1	-29.999999999999996	29.999999999999996								
	2729	149	0.001651	0.015909	0.046948	316.0	316.0	316.0	0	0	1	-29.999999999999996	29.999999999999996								
	2730	47	0.00188	0.02287	0.6432	831.0	831.0	831.0	0	0	1	-29.999999999999996	29.999999999999996								
	2730	48	0.00188	0.02287	0.6432	831.0	831.0	831.0	0	0	1	-29.999999999999996	29.999999999999996								
	82	2724	0.002769	0.031162	0.89824	1386.0	1386.0	1386.0	0	0	1	-29.999999999999996	29.999999999999996								
	42	23	0.01345	0.081141	0.141134	339.0	339.0	339.0	0	0	1	-29.999999999999996	29.999999999999996								
	26	90	0.009091	0.062401	0.111417	453.0	453.0	453.0	0	0	1	-29.999999999999996	29.999999999999996								
	27	91	0.00868	0.06405	0.096994	426.99999999999994	426.99999999999994	426.99999999999994	0	0	1	-29.999999999999996	29.999999999999996								
	146	30	0.016961	0.123659	0.196988	316.0	316.0	316.0	0	0	1	-29.999999999999996	29.999999999999996								
	135	33	0.00512	0.02618	0.029621	301.0	301.0	301.0	0	0	1	-29.999999999999996	29.999999999999996								
	134	20	0.01068	0.061961	0.094961	385.0	385.0	385.0	0	0	1	-29.999999999999996	29.999999999999996								
	164	21	0.014651	0.105891	0.170852	316.0	316.0	316.0	0	0	1	-29.999999999999996	29.999999999999996								
	40	109	0.01488	0.08161	0.114805	314.0	314.0	314.0	0	0	1	-29.999999999999996	29.999999999999996								
	39	91	0.011159	0.07231	0.103673	324.0	324.0	324.0	0	0	1	-29.999999999999996	29.999999999999996								
	178	83	0.005517	0.059484	0.170775	316.0	316.0	316.0	0	0	1	-29.999999999999996	29.999999999999996								
	203	165	0.01176	0.068289	0.102802	324.0	324.0	324.0	0	0	1	-29.999999999999996	29.999999999999996								
	194	165	0.016818	0.089091	0.129935	358.0	358.0	358.0	0	0	1	-29.999999999999996	29.999999999999996								
	193	164	0.013843	0.087025	0.134842	383.0	383.0	383.0	0	0	1	-29.999999999999996	29.999999999999996								
	207	167	0.01676	0.097169	0.148685	269.0	269.0	269.0	0	0	1	-29.999999999999996	29.999999999999996								
	42	10	0.01269	0.074979	0.130196	351.0	351.0	351.0	0	0	1	-29.999999999999996	29.999999999999996								
	198	18	0.014091	0.10413	0.15972	316.0	316.0	316.0	0	0	1	-29.999999999999996	29.999999999999996								
	100	54	0.003719	0.0438	0.100962	457.0	457.0	457.0	0	0	1	-29.999999999999996	29.999999999999996								
	162	82	0.00194	0.02056	0.51584	1178.0	1178.0	1178.0	0	0	1	-29.999999999999996	29.999999999999996								
	44	9	0.0015	0.01506	0.4032	1386.0	1386.0	1386.0	0	0	1	-29.999999999999996	29.999999999999996								
	185	150	0.00294	0.03463	0.9216	693.0	693.0	693.0	0	0	1	-29.999999999999996	29.999999999999996								
	121	56	0.00169	0.01994	0.50624	831.0	831.0	831.0	0	0	1	-29.999999999999996	29.999999999999996								
	29	93	0.00137	0.01625	0.41184	1386.0	1386.0	1386.0	0	0	1	-29.999999999999996	29.999999999999996								
	28	123	0.00231	0.02769	0.70144	1386.0	1386.0	1386.0	0	0	1	-29.999999999999996	29.999999999999996								
	25	192	0.00207	0.02474	0.664	1386.0	1386.0	1386.0	0	0	1	-29.999999999999996	29.999999999999996								
	120	63	0.0015	0.01788	0.4512	831.0	831.0	831.0	0	0	1	-29.999999999999996	29.999999999999996								
	122	63	0.00469	0.05544	1.4048	831.0	831.0	831.0	0	0	0	-29.999999999999996	29.999999999999996								
	82	31	0.00331	0.03425	0.85888	977.0	977.0	977.0	0	0	1	-29.999999999999996	29.999999999999996								
	92	28	0.00219	0.02369	0.59584	1178.0	1178.0	1178.0	0	0	1	-29.999999999999996	29.999999999999996								
	12	4	0.01674	0.09711	0.144232	426.99999999999994	426.99999999999994	426.99999999999994	0	0	1	-29.999999999999996	29.999999999999996								
	30	11	0.0057	0.0407	0.06021	316.0	316.0	316.0	0	0	1	-29.999999999999996	29.999999999999996								
	24	4	0.004419	0.032229	0.049852	383.0	383.0	383.0	0	0	1	-29.999999999999996	29.999999999999996								
	17	7	0.014591	0.11219	0.165528	383.0	383.0	383.0	0	0	1	-29.999999999999996	29.999999999999996								
	21	10	0.01211	0.087419	0.140166	316.0	316.0	316.0	0	0	1	-29.999999999999996	29.999999999999996								
	26	5	0.009773	0.050516	0.088959	377.0	377.0	377.0	0	0	1	-29.999999999999996	29.999999999999996								
	17	3	0.01068	0.07895	0.245194	274.0	274.0	274.0	0	0	1	-29.999999999999996	29.999999999999996								
	26	19	0.0057	0.039521	0.075533	440.00000000000006	440.00000000000006	440.00000000000006	0	0	1	-29.999999999999996	29.999999999999996								
	27	20	0.0057	0.039521	0.075533	440.00000000000006	440.00000000000006	440.00000000000006	0	0	1	-29.999999999999996	29.999999999999996								
	13	6	0.00525	0.03988	0.061952	316.0	316.0	316.0	0	0	1	-29.999999999999996	29.999999999999996								
	13	12	2.1e-5	0.000207	0.0	316.0	316.0	316.0	0	0	1	-29.999999999999996	29.999999999999996								
	32	13	0.00093	0.00651	0.011132	316.0	316.0	316.0	0	0	1	-29.999999999999996	29.999999999999996								
	23	11	0.00205	0.01326	0.022429	385.0	385.0	385.0	0	0	1	-29.999999999999996	29.999999999999996								
	33	5	0.007831	0.043	0.04962	301.0	301.0	301.0	0	0	1	-29.999999999999996	29.999999999999996								
	19	4	0.00293	0.01599	0.024781	324.0	324.0	324.0	0	0	1	-29.999999999999996	29.999999999999996								
	26	1	0.00155	0.01169	0.018198	633.0	633.0	633.0	0	0	1	-29.999999999999996	29.999999999999996								
	27	2	0.00155	0.01169	0.018198	633.0	633.0	633.0	0	0	1	-29.999999999999996	29.999999999999996								
	27	24	0.003841	0.028531	0.045883	392.0	392.0	392.0	0	0	1	-29.999999999999996	29.999999999999996								
	25	9	0.00298	0.03418	0.93504	831.0	831.0	831.0	0	0	1	-29.999999999999996	29.999999999999996								
	28	25	0.00358	0.04262	1.0944	1386.0	1386.0	1386.0	0	0	1	-29.999999999999996	29.999999999999996								
	14	29	0.00336	0.03977	1.02163	1316.0	1316.0	1316.0	0	0	1	-29.999999999999996	29.999999999999996								
	8	15	0.00299	0.03675	0.9184	1150.0	1150.0	1150.0	0	0	1	-29.999999999999996	29.999999999999996								
	8	14	0.00112	0.01329	0.341248	1150.0	1150.0	1150.0	0	0	1	-29.999999999999996	29.999999999999996								
	31	29	0.00075	0.009	0.22848	1150.0	1150.0	1150.0	0	0	1	-29.999999999999996	29.999999999999996								
	62	58	0.010479	0.060969	0.092047	269.0	269.0	269.0	0	0	1	-29.999999999999996	29.999999999999996								
	60	55	0.00882	0.065641	0.100662	274.0	274.0	274.0	0	0	1	-29.999999999999996	29.999999999999996								
	67	34	0.011219	0.065581	0.098349	274.0	274.0	274.0	0	0	1	-29.999999999999996	29.999999999999996								
	50	34	0.01163	0.07031	0.105802	341.0	341.0	341.0	0	0	1	-29.999999999999996	29.999999999999996								
	58	42	0.00545	0.040211	0.066986	404.0	404.0	404.0	0	0	1	-29.999999999999996	29.999999999999996								
	59	43	0.00545	0.040211	0.066986	404.0	404.0	404.0	0	0	1	-29.999999999999996	29.999999999999996								
	59	34	0.00837	0.04868	0.073481	379.0	379.0	379.0	0	0	1	-29.999999999999996	29.999999999999996								
	68	51	0.003159	0.02076	0.03146	385.0	385.0	385.0	0	0	1	-29.999999999999996	29.999999999999996								
	51	38	0.006979	0.051961	0.079666	316.0	316.0	316.0	0	0	1	-29.999999999999996	29.999999999999996								
	36	55	0.00374	0.027831	0.042689	274.0	274.0	274.0	0	0	1	-29.999999999999996	29.999999999999996								
	37	35	0.00769	0.057271	0.087894	316.0	316.0	316.0	0	0	1	-29.999999999999996	29.999999999999996								
	54	37	0.00556	0.04145	0.063598	383.0	383.0	383.0	0	0	1	-29.999999999999996	29.999999999999996								
	67	36	0.004521	0.03368	0.051691	392.0	392.0	392.0	0	0	1	-29.999999999999996	29.999999999999996								
	67	66	0.00151	0.008781	0.013165	341.0	341.0	341.0	0	0	1	-29.999999999999996	29.999999999999996								
	61	42	0.00574	0.042831	0.065727	404.0	404.0	404.0	0	0	1	-29.999999999999996	29.999999999999996								
	62	43	0.00707	0.045409	0.069309	314.0	314.0	314.0	0	0	1	-29.999999999999996	29.999999999999996								
	61	39	0.01213	0.062151	0.093712	314.0	314.0	314.0	0	0	1	-29.999999999999996	29.999999999999996								
	60	40	0.002479	0.017979	0.027588	316.0	316.0	316.0	0	0	1	-29.999999999999996	29.999999999999996								
	46	39	0.002401	0.01494	0.022525	341.0	341.0	341.0	0	0	1	-29.999999999999996	29.999999999999996								
	49	45	0.00167	0.0189	0.54176	1150.0	1150.0	1150.0	0	0	1	-29.999999999999996	29.999999999999996								
	57	53	0.00109	0.01277	0.34176	1150.0	1150.0	1150.0	0	0	1	-29.999999999999996	29.999999999999996								
	41	57	0.002259	0.026439	0.70784	1150.0	1150.0	1150.0	0	0	1	-29.999999999999996	29.999999999999996								
	63	57	0.00094	0.01097	0.29376	1393.0	1393.0	1393.0	0	0	1	-29.999999999999996	29.999999999999996								
	47	64	0.00113	0.01406	0.37488	1386.0	1386.0	1386.0	0	0	1	-29.999999999999996	29.999999999999996								
	52	44	0.00176	0.02144	0.57344	1150.0	1150.0	1150.0	0	0	1	-29.999999999999996	29.999999999999996								
	96	125	0.004876	0.033616	0.059609	404.0	404.0	404.0	0	0	1	-29.999999999999996	29.999999999999996								
	75	106	0.01093	0.059194	0.08439	246.0	246.0	246.0	0	0	1	-29.999999999999996	29.999999999999996								
	106	94	0.001942	0.013926	0.022845	404.0	404.0	404.0	0	0	1	-29.999999999999996	29.999999999999996								
	79	85	0.004318	0.029752	0.05264	316.0	316.0	316.0	0	0	1	-29.999999999999996	29.999999999999996								
	131	130	0.000661	0.004959	0.007579	379.0	379.0	379.0	0	0	1	-29.999999999999996	29.999999999999996								
	107	131	0.005372	0.040393	0.060055	379.0	379.0	379.0	0	0	1	-29.999999999999996	29.999999999999996								
	91	131	0.000826	0.005248	0.008683	301.0	301.0	301.0	0	0	1	-29.999999999999996	29.999999999999996								
	100	119	0.015888	0.087603	0.116818	314.0	314.0	314.0	0	0	1	-29.999999999999996	29.999999999999996								
	81	113	0.002169	0.014587	0.025749	269.0	269.0	269.0	0	0	1	-29.999999999999996	29.999999999999996								
	116	101	0.017727	0.116777	0.163611	246.0	246.0	246.0	0	0	1	-29.999999999999996	29.999999999999996								
	126	74	0.00593	0.04093	0.072145	404.0	404.0	404.0	0	0	1	-29.999999999999996	29.999999999999996								
	108	90	0.003905	0.028471	0.044983	383.0	383.0	383.0	0	0	1	-29.999999999999996	29.999999999999996								
	118	79	0.008161	0.042417	0.061197	356.0	356.0	356.0	0	0	1	-29.999999999999996	29.999999999999996								
	119	78	0.008161	0.042417	0.061197	356.0	356.0	356.0	0	0	1	-29.999999999999996	29.999999999999996								
	79	76	0.005186	0.038388	0.058748	453.0	453.0	453.0	0	0	1	-29.999999999999996	29.999999999999996								
	78	73	0.002128	0.014029	0.022603	301.0	301.0	301.0	0	0	1	-29.999999999999996	29.999999999999996								
	114	78	0.004628	0.027748	0.046115	324.0	324.0	324.0	0	0	1	-29.999999999999996	29.999999999999996								
	103	72	0.011219	0.070744	0.115705	246.0	246.0	246.0	0	0	1	-29.999999999999996	29.999999999999996								
	110	117	0.006012	0.041467	0.073636	383.0	383.0	383.0	0	0	1	-29.999999999999996	29.999999999999996								
	91	69	0.002066	0.012789	0.020551	269.0	269.0	269.0	0	0	1	-29.999999999999996	29.999999999999996								
	86	90	0.001364	0.009731	0.016243	453.0	453.0	453.0	0	0	1	-29.999999999999996	29.999999999999996								
	129	87	0.000579	0.004112	0.007008	404.0	404.0	404.0	0	0	1	-29.999999999999996	29.999999999999996								
	132	76	0.000847	0.00624	0.009544	457.0	457.0	457.0	0	0	1	-29.999999999999996	29.999999999999996								
	133	77	0.000847	0.00626	0.009477	457.0	457.0	457.0	0	0	1	-29.999999999999996	29.999999999999996								
	102	77	0.001591	0.011116	0.019128	453.0	453.0	453.0	0	0	1	-29.999999999999996	29.999999999999996								
	125	104	0.003141	0.021591	0.038391	404.0	404.0	404.0	0	0	1	-29.999999999999996	29.999999999999996								
	126	111	0.004545	0.03157	0.055312	316.0	316.0	316.0	0	0	1	-29.999999999999996	29.999999999999996								
	104	84	0.001446	0.009917	0.017598	316.0	316.0	316.0	0	0	1	-29.999999999999996	29.999999999999996								
	105	95	0.003822	0.026674	0.046154	316.0	316.0	316.0	0	0	1	-29.999999999999996	29.999999999999996								
	112	80	0.007769	0.041281	0.063907	269.0	269.0	269.0	0	0	1	-29.999999999999996	29.999999999999996								
	89	78	0.004463	0.030413	0.048671	246.0	246.0	246.0	0	0	1	-29.999999999999996	29.999999999999996								
	117	108	0.005888	0.035062	0.052349	246.0	246.0	246.0	0	0	1	-29.999999999999996	29.999999999999996								
	109	99	0.003161	0.023409	0.036165	316.0	316.0	316.0	0	0	1	-29.999999999999996	29.999999999999996								
	116	79	0.001839	0.012603	0.022399	316.0	316.0	316.0	0	0	1	-29.999999999999996	29.999999999999996								
	107	88	0.001715	0.009607	0.014239	301.0	301.0	301.0	0	0	1	-29.999999999999996	29.999999999999996								
	98	79	0.003409	0.024421	0.039969	246.0	246.0	246.0	0	0	1	-29.999999999999996	29.999999999999996								
	117	78	0.001839	0.012603	0.02239	316.0	316.0	316.0	0	0	1	-29.999999999999996	29.999999999999996								
	83	97	0.005702	0.041488	0.066172	404.0	404.0	404.0	0	0	1	-29.999999999999996	29.999999999999996								
	124	118	0.004587	0.024628	0.036165	314.0	314.0	314.0	0	0	1	-29.999999999999996	29.999999999999996								
	124	110	0.002149	0.013327	0.022109	246.0	246.0	246.0	0	0	1	-29.999999999999996	29.999999999999996								
	100	71	0.000785	0.004876	0.00726	269.0	269.0	269.0	0	0	1	-29.999999999999996	29.999999999999996								
	101	70	0.000785	0.004876	0.007241	269.0	269.0	269.0	0	0	1	-29.999999999999996	29.999999999999996								
	93	127	0.002413	0.027544	0.767968	831.0	831.0	831.0	0	0	1	-29.999999999999996	29.999999999999996								
	82	127	0.002131	0.024319	0.67744	1386.0	1386.0	1386.0	0	0	1	-29.999999999999996	29.999999999999996								
	122	115	0.000913	0.0104	0.289888	1150.0	1150.0	1150.0	0	0	1	-29.999999999999996	29.999999999999996								
	123	121	0.003119	0.035631	0.991072	831.0	831.0	831.0	0	0	1	-29.999999999999996	29.999999999999996								
	115	128	0.000919	0.010512	0.292928	1150.0	1150.0	1150.0	0	0	1	-29.999999999999996	29.999999999999996								
	173	156	0.01545	0.073349	0.126614	426.99999999999994	426.99999999999994	426.99999999999994	0	0	1	-29.999999999999996	29.999999999999996								
	174	155	0.01545	0.073349	0.126614	426.99999999999994	426.99999999999994	426.99999999999994	0	0	1	-29.999999999999996	29.999999999999996								
	176	155	0.01457	0.07955	0.14007	324.0	324.0	324.0	0	0	1	-29.999999999999996	29.999999999999996								
	177	156	0.01457	0.07955	0.14007	324.0	324.0	324.0	0	0	1	-29.999999999999996	29.999999999999996								
	176	144	0.006031	0.04401	0.069793	316.0	316.0	316.0	0	0	1	-29.999999999999996	29.999999999999996								
	165	140	0.011031	0.08057	0.124127	404.0	404.0	404.0	0	0	1	-29.999999999999996	29.999999999999996								
	137	155	0.005831	0.04231	0.070664	383.0	383.0	383.0	0	0	1	-29.999999999999996	29.999999999999996								
	170	173	0.01849	0.095599	0.159139	305.0	305.0	305.0	0	0	1	-29.999999999999996	29.999999999999996								
	152	174	0.010581	0.053	0.088475	385.0	385.0	385.0	0	0	1	-29.999999999999996	29.999999999999996								
	154	156	0.012521	0.091359	0.145394	453.0	453.0	453.0	0	0	1	-29.999999999999996	29.999999999999996								
	136	137	0.00506	0.036539	0.063598	305.0	305.0	305.0	0	0	1	-29.999999999999996	29.999999999999996								
	148	143	0.01043	0.077891	0.122065	383.0	383.0	383.0	0	0	1	-29.999999999999996	29.999999999999996								
	153	181	0.007702	0.056917	0.086733	316.0	316.0	316.0	0	0	1	-29.999999999999996	29.999999999999996								
	153	180	0.002256	0.016674	0.02541	333.0	333.0	333.0	0	0	1	-29.999999999999996	29.999999999999996								
	175	147	0.009147	0.089554	0.215196	246.0	246.0	246.0	0	0	1	-29.999999999999996	29.999999999999996								
	175	169	0.00244	0.01318	0.021296	341.0	341.0	341.0	0	0	0	-29.999999999999996	29.999999999999996								
	169	140	0.00355	0.02593	0.041237	404.0	404.0	404.0	0	0	1	-29.999999999999996	29.999999999999996								
	170	167	0.01312	0.076219	0.116644	324.0	324.0	324.0	0	0	1	-29.999999999999996	29.999999999999996								
	169	152	0.009341	0.05225	0.087701	305.0	305.0	305.0	0	0	1	-29.999999999999996	29.999999999999996								
	146	135	0.006141	0.032521	0.052456	356.0	356.0	356.0	0	0	1	-29.999999999999996	29.999999999999996								
	147	134	0.00438	0.03188	0.050723	453.0	453.0	453.0	0	0	1	-29.999999999999996	29.999999999999996								
	164	147	0.000479	0.00331	0.005711	404.0	404.0	404.0	0	0	1	-29.999999999999996	29.999999999999996								
	165	146	0.000479	0.00331	0.005711	404.0	404.0	404.0	0	0	1	-29.999999999999996	29.999999999999996								
	154	143	0.010539	0.076859	0.122355	316.0	316.0	316.0	0	0	1	-29.999999999999996	29.999999999999996								
	159	148	0.00469	0.034651	0.053821	383.0	383.0	383.0	0	0	1	-29.999999999999996	29.999999999999996								
	149	141	0.006469	0.0413	0.069212	383.0	383.0	383.0	0	0	1	-29.999999999999996	29.999999999999996								
	168	141	0.00105	0.007211	0.01028	316.0	316.0	316.0	0	0	1	-29.999999999999996	29.999999999999996								
	168	159	0.006099	0.044831	0.070954	316.0	316.0	316.0	0	0	1	-29.999999999999996	29.999999999999996								
	176	136	0.002211	0.01655	0.024781	316.0	316.0	316.0	0	0	1	-29.999999999999996	29.999999999999996								
	178	177	0.005169	0.036979	0.058951	316.0	316.0	316.0	0	0	1	-29.999999999999996	29.999999999999996								
	181	173	0.002401	0.017789	0.027588	381.0	381.0	381.0	0	0	1	-29.999999999999996	29.999999999999996								
	157	138	0.00274	0.02696	0.70592	977.0	977.0	977.0	0	0	1	-29.999999999999996	29.999999999999996								
	163	139	0.0017	0.01733	0.45632	915.0	915.0	915.0	0	0	1	-29.999999999999996	29.999999999999996								
	161	162	0.00136	0.01574	0.433664	1469.0	1469.0	1469.0	0	0	1	-29.999999999999996	29.999999999999996								
	171	151	0.00371	0.04326	1.18688	693.0	693.0	693.0	0	0	1	-29.999999999999996	29.999999999999996								
	188	193	0.01882	0.137581	0.25381	299.0	299.0	299.0	0	0	1	-29.999999999999996	29.999999999999996								
	197	203	0.02756	0.16014	0.242871	269.0	269.0	269.0	0	0	1	-29.999999999999996	29.999999999999996								
	189	208	0.01905	0.11132	0.167851	269.0	269.0	269.0	0	0	1	-29.999999999999996	29.999999999999996								
	191	194	0.00795	0.05919	0.090798	316.0	316.0	316.0	0	0	1	-29.999999999999996	29.999999999999996								
	193	182	0.0018	0.021141	0.051498	633.0	633.0	633.0	0	0	1	-29.999999999999996	29.999999999999996								
	202	204	0.00731	0.055789	0.083635	274.0	274.0	274.0	0	0	1	-29.999999999999996	29.999999999999996								
	190	201	0.00564	0.041961	0.064372	274.0	274.0	274.0	0	0	1	-29.999999999999996	29.999999999999996								
	208	183	0.0057	0.04236	0.129712	366.0	366.0	366.0	0	0	1	-29.999999999999996	29.999999999999996								
	200	184	0.00131	0.01548	0.41152	1150.0	1150.0	1150.0	0	0	1	-29.999999999999996	29.999999999999996								
	186	192	0.00224	0.02583	0.72352	831.0	831.0	831.0	0	0	1	-29.999999999999996	29.999999999999996								
	195	187	0.0021	0.02475	0.65792	1150.0	1150.0	1150.0	0	0	1	-29.999999999999996	29.999999999999996								
	205	199	0.0015	0.01768	0.46944	831.0	831.0	831.0	0	0	1	-29.999999999999996	29.999999999999996								
	186	205	0.00133	0.01569	0.418208	831.0	831.0	831.0	0	0	1	-29.999999999999996	29.999999999999996								
...
];

%%-----  OPF Data  -----%%
%% cost data
%    1    startup    shutdown    n    x1    y1    ...    xn    yn
%    2    startup    shutdown    n    c(n-1)    ...    c0
mpc.gencost = [
	2	0.0	0.0	2	112.78	0.0
	2	0.0	0.0	2	112.78	0.0
	2	0.0	0.0	2	76.1	0.0
	2	0.0	0.0	2	76.1	0.0
	2	0.0	0.0	2	76.1	0.0
	2	0.0	0.0	2	76.1	0.0
	2	0.0	0.0	2	76.1	0.0
	2	0.0	0.0	2	76.1	0.0
	2	0.0	0.0	2	76.1	0.0
	2	0.0	0.0	2	76.1	0.0
	2	0.0	0.0	2	76.1	0.0
	2	0.0	0.0	2	76.1	0.0
	2	0.0	0.0	2	76.1	0.0
	2	0.0	0.0	2	102.05	0.0
	2	0.0	0.0	2	102.05	0.0
	2	0.0	0.0	2	102.05	0.0
	2	0.0	0.0	2	102.05	0.0
	2	0.0	0.0	2	102.05	0.0
	2	0.0	0.0	2	102.05	0.0
	2	0.0	0.0	2	102.05	0.0
	2	0.0	0.0	2	102.05	0.0
	2	0.0	0.0	2	105.35000000000001	0.0
	2	0.0	0.0	2	105.35000000000001	0.0
	2	0.0	0.0	2	105.35000000000001	0.0
	2	0.0	0.0	2	105.35000000000001	0.0
	2	0.0	0.0	2	105.35000000000001	0.0
	2	0.0	0.0	2	105.35000000000001	0.0
	2	0.0	0.0	2	105.35000000000001	0.0
	2	0.0	0.0	2	0.0	0.0
	2	0.0	0.0	2	95.31	0.0
	2	0.0	0.0	2	95.31	0.0
	2	0.0	0.0	2	95.31	0.0
	2	0.0	0.0	2	95.31	0.0
	2	0.0	0.0	2	95.31	0.0
	2	0.0	0.0	2	90.03	0.0
	2	0.0	0.0	2	90.03	0.0
	2	0.0	0.0	2	0.0	0.0
	2	0.0	0.0	2	0.0	0.0
	2	0.0	0.0	2	92.78	0.0
	2	0.0	0.0	2	92.78	0.0
	2	0.0	0.0	2	94.09	0.0
	2	0.0	0.0	2	94.09	0.0
	2	0.0	0.0	2	97.12	0.0
	2	0.0	0.0	2	97.12	0.0
	2	0.0	0.0	2	99.52	0.0
	2	0.0	0.0	2	91.16	0.0
	2	0.0	0.0	2	91.16	0.0
	2	0.0	0.0	2	91.16	0.0
	2	0.0	0.0	2	91.16	0.0
	2	0.0	0.0	2	91.16	0.0
	2	0.0	0.0	2	0.01	0.0
	2	0.0	0.0	2	0.01	0.0
	2	0.0	0.0	2	0.01	0.0
	2	0.0	0.0	2	0.01	0.0
	2	0.0	0.0	2	92.43	0.0
	2	0.0	0.0	2	92.43	0.0
	2	0.0	0.0	2	92.43	0.0
	2	0.0	0.0	2	96.42	0.0
	2	0.0	0.0	2	96.42	0.0
	2	0.0	0.0	2	96.42	0.0
	2	0.0	0.0	2	116.01	0.0
	2	0.0	0.0	2	116.01	0.0
	2	0.0	0.0	2	116.01	0.0
	2	0.0	0.0	2	116.01	0.0
	2	0.0	0.0	2	116.01	0.0
	2	0.0	0.0	2	116.01	0.0
	2	0.0	0.0	2	116.01	0.0
	2	0.0	0.0	2	98.84	0.0
	2	0.0	0.0	2	98.84	0.0
	2	0.0	0.0	2	98.84	0.0
	2	0.0	0.0	2	98.84	0.0
	2	0.0	0.0	2	98.84	0.0
	2	0.0	0.0	2	98.84	0.0
	2	0.0	0.0	2	98.84	0.0
	2	0.0	0.0	2	98.84	0.0
	2	0.0	0.0	2	98.84	0.0
	2	0.0	0.0	2	89.22	0.0
	2	0.0	0.0	2	89.22	0.0
	2	0.0	0.0	2	89.22	0.0
	2	0.0	0.0	2	89.22	0.0
	2	0.0	0.0	2	0.0	0.0
	2	0.0	0.0	2	0.01	0.0
	2	0.0	0.0	2	0.01	0.0
	2	0.0	0.0	2	0.01	0.0
	2	0.0	0.0	2	0.01	0.0
	2	0.0	0.0	2	0.0	0.0
	2	0.0	0.0	2	0.0	0.0
	2	0.0	0.0	2	0.0	0.0
	2	0.0	0.0	2	0.0	0.0
	2	0.0	0.0	2	0.0	0.0
	2	0.0	0.0	2	0.0	0.0
	2	0.0	0.0	2	0.0	0.0
	2	0.0	0.0	2	76.1	0.0
	2	0.0	0.0	2	0.0	0.0
	2	0.0	0.0	2	0.0	0.0
	2	0.0	0.0	2	0.0	0.0
	2	0.0	0.0	2	0.0	0.0
	2	0.0	0.0	2	0.0	0.0
	2	0.0	0.0	2	0.0	0.0
	2	0.0	0.0	2	0.0	0.0
	2	0.0	0.0	2	0.0	0.0
	2	0.0	0.0	2	0.0	0.0
	2	0.0	0.0	2	0.0	0.0
	2	0.0	0.0	2	0.0	0.0
	2	0.0	0.0	2	0.0	0.0
	2	0.0	0.0	2	0.0	0.0
	2	0.0	0.0	2	0.0	0.0
	2	0.0	0.0	2	0.0	0.0
	2	0.0	0.0	2	0.0	0.0
	2	0.0	0.0	2	0.0	0.0
	2	0.0	0.0	2	0.0	0.0
	2	0.0	0.0	2	0.0	0.0
	2	0.0	0.0	2	112.78	0.0
	2	0.0	0.0	2	112.78	0.0
	2	0.0	0.0	2	112.78	0.0
	2	0.0	0.0	2	0.0	0.0
	2	0.0	0.0	2	0.0	0.0
	2	0.0	0.0	2	0.0	0.0
	2	0.0	0.0	2	0.0	0.0
	2	0.0	0.0	2	0.0	0.0
	2	0.0	0.0	2	0.0	0.0
	2	0.0	0.0	2	0.0	0.0
	2	0.0	0.0	2	0.0	0.0
	2	0.0	0.0	2	0.0	0.0
	2	0.0	0.0	2	0.0	0.0
	2	0.0	0.0	2	0.0	0.0
	2	0.0	0.0	2	0.0	0.0
	2	0.0	0.0	2	0.0	0.0
	2	0.0	0.0	2	0.0	0.0
	2	0.0	0.0	2	0.0	0.0
	2	0.0	0.0	2	0.0	0.0
	2	0.0	0.0	2	0.0	0.0
	2	0.0	0.0	2	0.0	0.0
	2	0.0	0.0	2	0.0	0.0
	2	0.0	0.0	2	0.0	0.0
	2	0.0	0.0	2	0.0	0.0
	2	0.0	0.0	2	0.0	0.0
	2	0.0	0.0	2	0.0	0.0
	2	0.0	0.0	2	0.0	0.0
	2	0.0	0.0	2	0.0	0.0
	2	0.0	0.0	2	0.0	0.0
	2	0.0	0.0	2	102.05	0.0
	2	0.0	0.0	2	102.05	0.0
	2	0.0	0.0	2	0.0	0.0
	2	0.0	0.0	2	0.0	0.0
	2	0.0	0.0	2	0.0	0.0
	2	0.0	0.0	2	0.0	0.0
	2	0.0	0.0	2	105.35000000000001	0.0
	2	0.0	0.0	2	0.0	0.0
	2	0.0	0.0	2	0.0	0.0
	2	0.0	0.0	2	0.01	0.0
	2	0.0	0.0	2	0.01	0.0
	2	0.0	0.0	2	0.01	0.0
	2	0.0	0.0	2	0.01	0.0
	2	0.0	0.0	2	111.63	0.0
	2	0.0	0.0	2	111.63	0.0
	2	0.0	0.0	2	0.0	0.0
	2	0.0	0.0	2	0.0	0.0
	2	0.0	0.0	2	0.0	0.0
	2	0.0	0.0	2	0.0	0.0
	2	0.0	0.0	2	0.0	0.0
	2	0.0	0.0	2	0.0	0.0
	2	0.0	0.0	2	0.0	0.0
	2	0.0	0.0	2	0.0	0.0
	2	0.0	0.0	2	0.0	0.0
	2	0.0	0.0	2	0.0	0.0
	2	0.0	0.0	2	0.0	0.0
	2	0.0	0.0	2	90.03	0.0
	2	0.0	0.0	2	90.03	0.0
	2	0.0	0.0	2	0.0	0.0
	2	0.0	0.0	2	0.0	0.0
	2	0.0	0.0	2	0.0	0.0
	2	0.0	0.0	2	0.0	0.0
	2	0.0	0.0	2	0.0	0.0
	2	0.0	0.0	2	0.0	0.0
	2	0.0	0.0	2	0.0	0.0
	2	0.0	0.0	2	0.0	0.0
	2	0.0	0.0	2	0.0	0.0
	2	0.0	0.0	2	0.0	0.0
	2	0.0	0.0	2	0.0	0.0
	2	0.0	0.0	2	0.0	0.0
	2	0.0	0.0	2	0.0	0.0
	2	0.0	0.0	2	0.0	0.0
	2	0.0	0.0	2	0.0	0.0
	2	0.0	0.0	2	0.0	0.0
	2	0.0	0.0	2	0.0	0.0
	2	0.0	0.0	2	0.0	0.0
	2	0.0	0.0	2	0.0	0.0
	2	0.0	0.0	2	0.0	0.0
	2	0.0	0.0	2	0.0	0.0
	2	0.0	0.0	2	0.0	0.0
	2	0.0	0.0	2	0.0	0.0
	2	0.0	0.0	2	0.0	0.0
	2	0.0	0.0	2	0.0	0.0
	2	0.0	0.0	2	0.0	0.0
	2	0.0	0.0	2	0.0	0.0
	2	0.0	0.0	2	0.0	0.0
	2	0.0	0.0	2	0.0	0.0
	2	0.0	0.0	2	0.0	0.0
	2	0.0	0.0	2	0.0	0.0
...
];

